tests/data/edlifo-project/DSSfiles/SecLines.dss
New Line.SL_1 phases=1 bus1=TSF.1 bus2=T1.1 linecode=1/0 length=8 units=ft
New Line.SL_2 phases=1 bus1=T1.1 bus2=1750.1 linecode=4 length=65 units=ft
New Line.SL_3 phases=1 bus1=T1.1 bus2=T2.1 linecode=1/0 length=23 units=ft
New Line.SL_4 phases=1 bus1=T2.1 bus2=1751.1 linecode=4 length=33 units=ft
New Line.SL_5 phases=1 bus1=T2.1 bus2=T3.1 linecode=1/0 length=45 units=ft
New Line.SL_6 phases=1 bus1=T3.1 bus2=1756.1 linecode=4 length=70 units=ft
New Line.SL_7 phases=1 bus1=T3.1 bus2=1755.1 linecode=4 length=38 units=ft
New Line.SL_8 phases=1 bus1=T3.1 bus2=T4.1 linecode=1/0 length=36 units=ft
New Line.SL_9 phases=1 bus1=TSF.1 bus2=T5.1 linecode=1/0 length=24 units=ft
New Line.SL_10 phases=1 bus1=T5.1 bus2=1747.1 linecode=4 length=33 units=ft
New Line.SL_11 phases=1 bus1=T5.1 bus2=T6.1 linecode=1/0 length=55 units=ft
New Line.SL_12 phases=1 bus1=T6.1 bus2=1741.1 linecode=4 length=28 units=ft
New Line.SL_13 phases=1 bus1=T6.1 bus2=T7.1 linecode=1/0 length=37 units=ft
New Line.SL_14 phases=1 bus1=T7.1 bus2=1737.1 linecode=4 length=33 units=ft
New Line.SL_15 phases=1 bus1=T7.1 bus2=P6.1 linecode=1/0 length=35 units=ft
New Line.SL_16 phases=1 bus1=P6.1 bus2=T8.1 linecode=1/0 length=60 units=ft
New Line.SL_17 phases=1 bus1=T8.1 bus2=103.1 linecode=4 length=50 units=ft
New Line.SL_18 phases=1 bus1=T8.1 bus2=T9.1 linecode=1/0 length=58 units=ft
New Line.SL_19 phases=1 bus1=T9.1 bus2=109.1 linecode=4 length=48 units=ft
New Line.SL_20 phases=1 bus1=T9.1 bus2=T10.1 linecode=1/0 length=24 units=ft
New Line.SL_21 phases=1 bus1=T10.1 bus2=110.1 linecode=4 length=48 units=ft
New Line.SL_22 phases=1 bus1=T10.1 bus2=T11.1 linecode=1/0 length=10 units=ft
New Line.SL_23 phases=1 bus1=T11.1 bus2=112.1 linecode=1/0 length=70 units=ft
New Line.SL_24 phases=1 bus1=T11.1 bus2=111.1 linecode=1/0 length=50 units=ft
New Line.SL_25 phases=1 bus1=T11.1 bus2=P1.1 linecode=1/0 length=18 units=ft
New Line.SL_26 phases=1 bus1=P1.1 bus2=113.1 linecode=4 length=40 units=ft